LTspice 26.0.2 for Windows
Circuit: C:\Users\Public\Documents\Altium\NEXUS-connectors\ITA-PCB\crosstalk-sim\broadside_500_4000ps.net
Start Time: Tue Jul 21 13:13:32 2026
solver = Normal
Maximum thread count: 20
tnom = 27
temp = 27
method = trap
.OP point found by inspection.
.OP point found by inspection.
Total elapsed time: 0.292 seconds.

Files loaded:
C:\Users\Public\Documents\Altium\NEXUS-connectors\ITA-PCB\crosstalk-sim\broadside_500_4000ps.net

next_max: MAX(V(b0))=0.0140078850091 FROM 0 TO 3.4e-08
next_min: MIN(V(b0))=-0.000885790621396 FROM 0 TO 3.4e-08
fext_max: MAX(V(b200))=0.000192956023966 FROM 0 TO 3.4e-08
fext_min: MIN(V(b200))=-0.000952120870352 FROM 0 TO 3.4e-08
aggr: MAX(V(a0))=0.500641345978 FROM 0 TO 3.4e-08
