LTspice 26.0.2 for Windows
Circuit: C:\Users\Public\Documents\Altium\NEXUS-connectors\ITA-PCB\crosstalk-sim\broadside_500_100ps.net
Start Time: Tue Jul 21 13:13:29 2026
solver = Normal
Maximum thread count: 20
tnom = 27
temp = 27
method = trap
.OP point found by inspection.
.OP point found by inspection.
Total elapsed time: 0.356 seconds.

Files loaded:
C:\Users\Public\Documents\Altium\NEXUS-connectors\ITA-PCB\crosstalk-sim\broadside_500_100ps.net

next_max: MAX(V(b0))=0.243735581636 FROM 0 TO 2.8e-09
next_min: MIN(V(b0))=-1.43876896508e-10 FROM 0 TO 2.8e-09
fext_max: MAX(V(b200))=0.000783044670243 FROM 0 TO 2.8e-09
fext_min: MIN(V(b200))=-0.0153840519488 FROM 0 TO 2.8e-09
aggr: MAX(V(a0))=0.515918135643 FROM 0 TO 2.8e-09
