LTspice 26.0.2 for Windows
Circuit: C:\Users\Public\Documents\Altium\NEXUS-connectors\ITA-PCB\crosstalk-sim\broadside_2000_100ps.net
Start Time: Tue Jul 21 13:13:42 2026
solver = Normal
Maximum thread count: 20
tnom = 27
temp = 27
method = trap
.OP point found by inspection.
.OP point found by inspection.
Total elapsed time: 0.390 seconds.

Files loaded:
C:\Users\Public\Documents\Altium\NEXUS-connectors\ITA-PCB\crosstalk-sim\broadside_2000_100ps.net

next_max: MAX(V(b0))=0.243714392185 FROM 0 TO 3.6386e-09
next_min: MIN(V(b0))=0 FROM 0 TO 3.6386e-09
fext_max: MAX(V(b200))=0.000170407205587 FROM 0 TO 3.6386e-09
fext_min: MIN(V(b200))=-0.0619983263314 FROM 0 TO 3.6386e-09
aggr: MAX(V(a0))=0.554752826691 FROM 0 TO 3.6386e-09
