LTspice 26.0.2 for Windows
Circuit: C:\Users\Public\Documents\Altium\NEXUS-connectors\ITA-PCB\crosstalk-sim\broadside_250_100ps.net
Start Time: Tue Jul 21 13:13:25 2026
solver = Normal
Maximum thread count: 20
tnom = 27
temp = 27
method = trap
.OP point found by inspection.
.OP point found by inspection.
Total elapsed time: 0.349 seconds.

Files loaded:
C:\Users\Public\Documents\Altium\NEXUS-connectors\ITA-PCB\crosstalk-sim\broadside_250_100ps.net

next_max: MAX(V(b0))=0.218489304185 FROM 0 TO 2.8e-09
next_min: MIN(V(b0))=-2.05440619538e-06 FROM 0 TO 2.8e-09
fext_max: MAX(V(b200))=0.000767294259276 FROM 0 TO 2.8e-09
fext_min: MIN(V(b200))=-0.0114239174873 FROM 0 TO 2.8e-09
aggr: MAX(V(a0))=0.509657025337 FROM 0 TO 2.8e-09
