LTspice 26.0.2 for Windows
Circuit: C:\Users\Public\Documents\Altium\NEXUS-connectors\ITA-PCB\crosstalk-sim\broadside_2000_4000ps.net
Start Time: Tue Jul 21 13:13:46 2026
solver = Normal
Maximum thread count: 20
tnom = 27
temp = 27
method = trap
.OP point found by inspection.
.OP point found by inspection.
Total elapsed time: 0.292 seconds.

Files loaded:
C:\Users\Public\Documents\Altium\NEXUS-connectors\ITA-PCB\crosstalk-sim\broadside_2000_4000ps.net

next_max: MAX(V(b0))=0.0558306053281 FROM 0 TO 3.4e-08
next_min: MIN(V(b0))=-0.00032380988705 FROM 0 TO 3.4e-08
fext_max: MAX(V(b200))=0.000282049411908 FROM 0 TO 3.4e-08
fext_min: MIN(V(b200))=-0.00354589964263 FROM 0 TO 3.4e-08
aggr: MAX(V(a0))=0.50279968977 FROM 0 TO 3.4e-08
