LTspice 26.0.2 for Windows
Circuit: C:\Users\Public\Documents\Altium\NEXUS-connectors\ITA-PCB\crosstalk-sim\broadside_1000_100ps.net
Start Time: Fri Jul 10 23:06:27 2026
solver = Normal
Maximum thread count: 20
tnom = 27
temp = 27
method = trap
.OP point found by inspection.
.OP point found by inspection.
Total elapsed time: 0.389 seconds.

Files loaded:
C:\Users\Public\Documents\Altium\NEXUS-connectors\ITA-PCB\crosstalk-sim\broadside_1000_100ps.net

next_max: MAX(V(b0))=0.243730336428 FROM 0 TO 2.8193e-09
next_min: MIN(V(b0))=0 FROM 0 TO 2.8193e-09
fext_max: MAX(V(b200))=0.000394232105464 FROM 0 TO 2.8193e-09
fext_min: MIN(V(b200))=-0.0312414374202 FROM 0 TO 2.8193e-09
aggr: MAX(V(a0))=0.530866503716 FROM 0 TO 2.8193e-09
