LTspice 26.0.2 for Windows
Circuit: C:\Users\Public\Documents\Altium\NEXUS-connectors\ITA-PCB\crosstalk-sim\broadside_1500_300ps.net
Start Time: Tue Jul 21 13:13:39 2026
solver = Normal
Maximum thread count: 20
tnom = 27
temp = 27
method = trap
.OP point found by inspection.
.OP point found by inspection.
Total elapsed time: 0.311 seconds.

Files loaded:
C:\Users\Public\Documents\Altium\NEXUS-connectors\ITA-PCB\crosstalk-sim\broadside_1500_300ps.net

next_max: MAX(V(b0))=0.243515953422 FROM 0 TO 4.4e-09
next_min: MIN(V(b0))=0 FROM 0 TO 4.4e-09
fext_max: MAX(V(b200))=0.00250646891072 FROM 0 TO 4.4e-09
fext_min: MIN(V(b200))=-0.0169155858457 FROM 0 TO 4.4e-09
aggr: MAX(V(a0))=0.516391217709 FROM 0 TO 4.4e-09
