LTspice 26.0.2 for Windows
Circuit: C:\Users\Public\Documents\Altium\NEXUS-connectors\ITA-PCB\crosstalk-sim\broadside_1000_3000ps.net
Start Time: Fri Jul 10 23:06:30 2026
solver = Normal
Maximum thread count: 20
tnom = 27
temp = 27
method = trap
.OP point found by inspection.
.OP point found by inspection.
Total elapsed time: 0.320 seconds.

Files loaded:
C:\Users\Public\Documents\Altium\NEXUS-connectors\ITA-PCB\crosstalk-sim\broadside_1000_3000ps.net

next_max: MAX(V(b0))=0.0372989140451 FROM 0 TO 2.6e-08
next_min: MIN(V(b0))=-0.000490089296363 FROM 0 TO 2.6e-08
fext_max: MAX(V(b200))=0.000281925342279 FROM 0 TO 2.6e-08
fext_min: MIN(V(b200))=-0.00236226106063 FROM 0 TO 2.6e-08
aggr: MAX(V(a0))=0.501862108707 FROM 0 TO 2.6e-08
