LTspice 26.0.2 for Windows
Circuit: C:\Users\Public\Documents\Altium\NEXUS-connectors\ITA-PCB\crosstalk-sim\broadside_1500_1000ps.net
Start Time: Tue Jul 21 13:13:39 2026
solver = Normal
Maximum thread count: 20
tnom = 27
temp = 27
method = trap
.OP point found by inspection.
.OP point found by inspection.
Total elapsed time: 0.289 seconds.

Files loaded:
C:\Users\Public\Documents\Altium\NEXUS-connectors\ITA-PCB\crosstalk-sim\broadside_1500_1000ps.net

next_max: MAX(V(b0))=0.154529795051 FROM 0 TO 1e-08
next_min: MIN(V(b0))=-7.57065354264e-05 FROM 0 TO 1e-08
fext_max: MAX(V(b200))=0.0001441444183 FROM 0 TO 1e-08
fext_min: MIN(V(b200))=-0.00897800922394 FROM 0 TO 1e-08
aggr: MAX(V(a0))=0.50726211071 FROM 0 TO 1e-08
