LTspice 26.0.2 for Windows
Circuit: C:\Users\Public\Documents\Altium\NEXUS-connectors\ITA-PCB\crosstalk-sim\broadside_250_3000ps.net
Start Time: Fri Jul 10 23:06:23 2026
solver = Normal
Maximum thread count: 20
tnom = 27
temp = 27
method = trap
.OP point found by inspection.
.OP point found by inspection.
Total elapsed time: 0.320 seconds.

Files loaded:
C:\Users\Public\Documents\Altium\NEXUS-connectors\ITA-PCB\crosstalk-sim\broadside_250_3000ps.net

next_max: MAX(V(b0))=0.0094430828467 FROM 0 TO 2.6e-08
next_min: MIN(V(b0))=-0.000912150135264 FROM 0 TO 2.6e-08
fext_max: MAX(V(b200))=0.000125317790662 FROM 0 TO 2.6e-08
fext_min: MIN(V(b200))=-0.0006076413556 FROM 0 TO 2.6e-08
aggr: MAX(V(a0))=0.500422775745 FROM 0 TO 2.6e-08
