LTspice 26.0.2 for Windows
Circuit: C:\Users\Public\Documents\Altium\NEXUS-connectors\ITA-PCB\crosstalk-sim\broadside_500_1000ps.net
Start Time: Fri Jul 10 23:06:26 2026
solver = Normal
Maximum thread count: 20
tnom = 27
temp = 27
method = trap
.OP point found by inspection.
.OP point found by inspection.
Total elapsed time: 0.319 seconds.

Files loaded:
C:\Users\Public\Documents\Altium\NEXUS-connectors\ITA-PCB\crosstalk-sim\broadside_500_1000ps.net

next_max: MAX(V(b0))=0.0558269359171 FROM 0 TO 1e-08
next_min: MIN(V(b0))=-0.000184217569767 FROM 0 TO 1e-08
fext_max: MAX(V(b200))=0.000222642542212 FROM 0 TO 1e-08
fext_min: MIN(V(b200))=-0.00350792822428 FROM 0 TO 1e-08
aggr: MAX(V(a0))=0.502848625183 FROM 0 TO 1e-08
