LTspice 26.0.2 for Windows
Circuit: C:\Users\Public\Documents\Altium\NEXUS-connectors\ITA-PCB\crosstalk-sim\broadside_2000_3000ps.net
Start Time: Tue Jul 21 13:13:45 2026
solver = Normal
Maximum thread count: 20
tnom = 27
temp = 27
method = trap
.OP point found by inspection.
.OP point found by inspection.
Total elapsed time: 0.296 seconds.

Files loaded:
C:\Users\Public\Documents\Altium\NEXUS-connectors\ITA-PCB\crosstalk-sim\broadside_2000_3000ps.net

next_max: MAX(V(b0))=0.0742023289204 FROM 0 TO 2.6e-08
next_min: MIN(V(b0))=-0.000112303299829 FROM 0 TO 2.6e-08
fext_max: MAX(V(b200))=0.000335779244779 FROM 0 TO 2.6e-08
fext_min: MIN(V(b200))=-0.00471126288176 FROM 0 TO 2.6e-08
aggr: MAX(V(a0))=0.503697276115 FROM 0 TO 2.6e-08
