LTspice 26.0.2 for Windows
Circuit: C:\Users\Public\Documents\Altium\NEXUS-connectors\ITA-PCB\crosstalk-sim\broadside_1000_4000ps.net
Start Time: Tue Jul 21 13:13:37 2026
solver = Normal
Maximum thread count: 20
tnom = 27
temp = 27
method = trap
.OP point found by inspection.
.OP point found by inspection.
Total elapsed time: 0.295 seconds.

Files loaded:
C:\Users\Public\Documents\Altium\NEXUS-connectors\ITA-PCB\crosstalk-sim\broadside_1000_4000ps.net

next_max: MAX(V(b0))=0.0280583892018 FROM 0 TO 3.4e-08
next_min: MIN(V(b0))=-0.000537054089364 FROM 0 TO 3.4e-08
fext_max: MAX(V(b200))=0.000278148974758 FROM 0 TO 3.4e-08
fext_min: MIN(V(b200))=-0.00183675810695 FROM 0 TO 3.4e-08
aggr: MAX(V(a0))=0.501378655434 FROM 0 TO 3.4e-08
