LTspice 26.0.2 for Windows
Circuit: C:\Users\Public\Documents\Altium\NEXUS-connectors\ITA-PCB\crosstalk-sim\broadside_2000_1000ps.net
Start Time: Tue Jul 21 13:13:44 2026
solver = Normal
Maximum thread count: 20
tnom = 27
temp = 27
method = trap
.OP point found by inspection.
.OP point found by inspection.
Total elapsed time: 0.300 seconds.

Files loaded:
C:\Users\Public\Documents\Altium\NEXUS-connectors\ITA-PCB\crosstalk-sim\broadside_2000_1000ps.net

next_max: MAX(V(b0))=0.187753662467 FROM 0 TO 1e-08
next_min: MIN(V(b0))=-4.4096577767e-05 FROM 0 TO 1e-08
fext_max: MAX(V(b200))=8.76694612089e-05 FROM 0 TO 1e-08
fext_min: MIN(V(b200))=-0.0115126473829 FROM 0 TO 1e-08
aggr: MAX(V(a0))=0.509317696095 FROM 0 TO 1e-08
