LTspice 26.0.2 for Windows
Circuit: C:\Users\Public\Documents\Altium\NEXUS-connectors\ITA-PCB\crosstalk-sim\coplanar_500_3000ps.net
Start Time: Fri Jul 10 23:06:12 2026
solver = Normal
Maximum thread count: 20
tnom = 27
temp = 27
method = trap
.OP point found by inspection.
.OP point found by inspection.
Total elapsed time: 0.297 seconds.

Files loaded:
C:\Users\Public\Documents\Altium\NEXUS-connectors\ITA-PCB\crosstalk-sim\coplanar_500_3000ps.net

next_max: MAX(V(b0))=0.00110014015809 FROM 0 TO 2.6e-08
next_min: MIN(V(b0))=-0.000195427826839 FROM 0 TO 2.6e-08
fext_max: MAX(V(b200))=0.000250070705079 FROM 0 TO 2.6e-08
fext_min: MIN(V(b200))=-0.000684845203068 FROM 0 TO 2.6e-08
aggr: MAX(V(a0))=0.500106990337 FROM 0 TO 2.6e-08
