LTspice 26.0.2 for Windows
Circuit: C:\Users\Public\Documents\Altium\NEXUS-connectors\ITA-PCB\crosstalk-sim\coplanar_3000_3000ps.net
Start Time: Tue Jul 21 13:13:23 2026
solver = Normal
Maximum thread count: 20
tnom = 27
temp = 27
method = trap
.OP point found by inspection.
.OP point found by inspection.
Total elapsed time: 0.278 seconds.

Files loaded:
C:\Users\Public\Documents\Altium\NEXUS-connectors\ITA-PCB\crosstalk-sim\coplanar_3000_3000ps.net

next_max: MAX(V(b0))=0.00647879717872 FROM 0 TO 2.6e-08
next_min: MIN(V(b0))=-0.000258861080511 FROM 0 TO 2.6e-08
fext_max: MAX(V(b200))=0.000892921700142 FROM 0 TO 2.6e-08
fext_min: MIN(V(b200))=-0.00381794897839 FROM 0 TO 2.6e-08
aggr: MAX(V(a0))=0.500363528728 FROM 0 TO 2.6e-08
