LTspice 26.0.2 for Windows
Circuit: C:\Users\Public\Documents\Altium\NEXUS-connectors\ITA-PCB\crosstalk-sim\coplanar_1500_100ps.net
Start Time: Tue Jul 21 13:13:16 2026
solver = Normal
Maximum thread count: 20
tnom = 27
temp = 27
method = trap
.OP point found by inspection.
.OP point found by inspection.
Total elapsed time: 0.368 seconds.

Files loaded:
C:\Users\Public\Documents\Altium\NEXUS-connectors\ITA-PCB\crosstalk-sim\coplanar_1500_100ps.net

next_max: MAX(V(b0))=0.0211893357337 FROM 0 TO 3.3484e-09
next_min: MIN(V(b0))=-3.41324234544e-16 FROM 0 TO 3.3484e-09
fext_max: MAX(V(b200))=0.000269042851869 FROM 0 TO 3.3484e-09
fext_min: MIN(V(b200))=-0.0496206954122 FROM 0 TO 3.3484e-09
aggr: MAX(V(a0))=0.505171120167 FROM 0 TO 3.3484e-09
