LTspice 26.0.2 for Windows
Circuit: C:\Users\Public\Documents\Altium\NEXUS-connectors\ITA-PCB\crosstalk-sim\coplanar_3000_1000ps.net
Start Time: Fri Jul 10 23:06:18 2026
solver = Normal
Maximum thread count: 20
tnom = 27
temp = 27
method = trap
.OP point found by inspection.
.OP point found by inspection.
Total elapsed time: 0.302 seconds.

Files loaded:
C:\Users\Public\Documents\Altium\NEXUS-connectors\ITA-PCB\crosstalk-sim\coplanar_3000_1000ps.net

next_max: MAX(V(b0))=0.0193745363504 FROM 0 TO 1e-08
next_min: MIN(V(b0))=-0.000210893020267 FROM 0 TO 1e-08
fext_max: MAX(V(b200))=0.00216888007708 FROM 0 TO 1e-08
fext_min: MIN(V(b200))=-0.0108128283173 FROM 0 TO 1e-08
aggr: MAX(V(a0))=0.501273930073 FROM 0 TO 1e-08
