LTspice 26.0.2 for Windows
Circuit: C:\Users\Public\Documents\Altium\NEXUS-connectors\ITA-PCB\crosstalk-sim\coplanar_3000_300ps.net
Start Time: Fri Jul 10 23:06:17 2026
solver = Normal
Maximum thread count: 20
tnom = 27
temp = 27
method = trap
.OP point found by inspection.
.OP point found by inspection.
Total elapsed time: 0.336 seconds.

Files loaded:
C:\Users\Public\Documents\Altium\NEXUS-connectors\ITA-PCB\crosstalk-sim\coplanar_3000_300ps.net

next_max: MAX(V(b0))=0.0211609397084 FROM 0 TO 4.6969e-09
next_min: MIN(V(b0))=-7.99666449893e-05 FROM 0 TO 4.6969e-09
fext_max: MAX(V(b200))=0.00330188754015 FROM 0 TO 4.6969e-09
fext_min: MIN(V(b200))=-0.034921284765 FROM 0 TO 4.6969e-09
aggr: MAX(V(a0))=0.503304004669 FROM 0 TO 4.6969e-09
