LTspice 26.0.2 for Windows
Circuit: C:\Users\Public\Documents\Altium\NEXUS-connectors\ITA-PCB\crosstalk-sim\coplanar_3000_4000ps.net
Start Time: Tue Jul 21 13:13:24 2026
solver = Normal
Maximum thread count: 20
tnom = 27
temp = 27
method = trap
.OP point found by inspection.
.OP point found by inspection.
Total elapsed time: 0.289 seconds.

Files loaded:
C:\Users\Public\Documents\Altium\NEXUS-connectors\ITA-PCB\crosstalk-sim\coplanar_3000_4000ps.net

next_max: MAX(V(b0))=0.00485819159076 FROM 0 TO 3.4e-08
next_min: MIN(V(b0))=-0.000261033477727 FROM 0 TO 3.4e-08
fext_max: MAX(V(b200))=0.000680124619976 FROM 0 TO 3.4e-08
fext_min: MIN(V(b200))=-0.0029462731909 FROM 0 TO 3.4e-08
aggr: MAX(V(a0))=0.500275015831 FROM 0 TO 3.4e-08
