LTspice 26.0.2 for Windows
Circuit: C:\Users\Public\Documents\Altium\NEXUS-connectors\ITA-PCB\crosstalk-sim\coplanar_500_1000ps.net
Start Time: Fri Jul 10 23:06:11 2026
solver = Normal
Maximum thread count: 20
tnom = 27
temp = 27
method = trap
.OP point found by inspection.
.OP point found by inspection.
Total elapsed time: 0.315 seconds.

Files loaded:
C:\Users\Public\Documents\Altium\NEXUS-connectors\ITA-PCB\crosstalk-sim\coplanar_500_1000ps.net

next_max: MAX(V(b0))=0.00327513879165 FROM 0 TO 1e-08
next_min: MIN(V(b0))=-0.000187085941434 FROM 0 TO 1e-08
fext_max: MAX(V(b200))=0.000380322017008 FROM 0 TO 1e-08
fext_min: MIN(V(b200))=-0.00190905190539 FROM 0 TO 1e-08
aggr: MAX(V(a0))=0.500378847122 FROM 0 TO 1e-08
