LTspice 26.0.2 for Windows
Circuit: C:\Users\Public\Documents\Altium\NEXUS-connectors\ITA-PCB\crosstalk-sim\coplanar_1500_4000ps.net
Start Time: Tue Jul 21 13:13:19 2026
solver = Normal
Maximum thread count: 20
tnom = 27
temp = 27
method = trap
.OP point found by inspection.
.OP point found by inspection.
Total elapsed time: 0.280 seconds.

Files loaded:
C:\Users\Public\Documents\Altium\NEXUS-connectors\ITA-PCB\crosstalk-sim\coplanar_1500_4000ps.net

next_max: MAX(V(b0))=0.00245418702252 FROM 0 TO 3.4e-08
next_min: MIN(V(b0))=-0.000204238283914 FROM 0 TO 3.4e-08
fext_max: MAX(V(b200))=0.000389697728679 FROM 0 TO 3.4e-08
fext_min: MIN(V(b200))=-0.00149870174937 FROM 0 TO 3.4e-08
aggr: MAX(V(a0))=0.500160574913 FROM 0 TO 3.4e-08
