LTspice 26.0.2 for Windows
Circuit: C:\Users\Public\Documents\Altium\NEXUS-connectors\ITA-PCB\crosstalk-sim\coplanar_1500_3000ps.net
Start Time: Tue Jul 21 13:13:19 2026
solver = Normal
Maximum thread count: 20
tnom = 27
temp = 27
method = trap
.OP point found by inspection.
.OP point found by inspection.
Total elapsed time: 0.296 seconds.

Files loaded:
C:\Users\Public\Documents\Altium\NEXUS-connectors\ITA-PCB\crosstalk-sim\coplanar_1500_3000ps.net

next_max: MAX(V(b0))=0.00325892562978 FROM 0 TO 2.6e-08
next_min: MIN(V(b0))=-0.00020234096155 FROM 0 TO 2.6e-08
fext_max: MAX(V(b200))=0.000465720280772 FROM 0 TO 2.6e-08
fext_min: MIN(V(b200))=-0.00194852869026 FROM 0 TO 2.6e-08
aggr: MAX(V(a0))=0.500216603279 FROM 0 TO 2.6e-08
