LTspice 26.0.2 for Windows
Circuit: C:\Users\Public\Documents\Altium\NEXUS-connectors\ITA-PCB\crosstalk-sim\smoke.net
Start Time: Fri Jul 10 23:04:34 2026
solver = Normal
Maximum thread count: 20
tnom = 27
temp = 27
method = trap
.OP point found by inspection.
.OP point found by inspection.
Total elapsed time: 0.318 seconds.

Files loaded:
C:\Users\Public\Documents\Altium\NEXUS-connectors\ITA-PCB\crosstalk-sim\smoke.net

next_max: MAX(V(b0))=0.0211552754045 FROM 0 TO 4.4e-09
next_min: MIN(V(b0))=-3.72170179617e-05 FROM 0 TO 4.4e-09
fext_max: MAX(V(b200))=0.00244845543057 FROM 0 TO 4.4e-09
fext_min: MIN(V(b200))=-0.0176213886589 FROM 0 TO 4.4e-09
aggr: MAX(V(a0))=0.502083659172 FROM 0 TO 4.4e-09
