LTspice 26.0.2 for Windows
Circuit: C:\Users\Public\Documents\Altium\NEXUS-connectors\ITA-PCB\crosstalk-sim\wf_broadside_500_300.net
Start Time: Fri Jul 10 23:11:55 2026
solver = Normal
Maximum thread count: 20
tnom = 27
temp = 27
method = trap
.OP point found by inspection.
.OP point found by inspection.
Total elapsed time: 0.322 seconds.

Files loaded:
C:\Users\Public\Documents\Altium\NEXUS-connectors\ITA-PCB\crosstalk-sim\wf_broadside_500_300.net

next_max: MAX(V(b0))=0.16557879746 FROM 0 TO 4.4e-09
next_min: MIN(V(b0))=-2.1328263756e-05 FROM 0 TO 4.4e-09
fext_max: MAX(V(b200))=2.91480955639e-05 FROM 0 TO 4.4e-09
fext_min: MIN(V(b200))=-0.00933946855366 FROM 0 TO 4.4e-09
aggr: MAX(V(a0))=0.508209764957 FROM 0 TO 4.4e-09
